$DATA1 SOURCE='HSPICE' VERSION='C-2009.09 32-BIT'
.TITLE '* fully differential operational amplifier design ****'
 slew_rate        temper           alter#            
  1.12373e+08       27.000000         1.000000       
